Version 4
SHEET 1 1832 1412
WIRE -1840 -352 -1840 -384
WIRE -1696 -352 -1840 -352
WIRE -1472 -352 -1472 -384
WIRE -1328 -352 -1472 -352
WIRE -1840 -320 -1840 -352
WIRE -1472 -320 -1472 -352
WIRE -1696 -304 -1696 -352
WIRE -1328 -304 -1328 -352
WIRE -2000 -256 -2000 -352
WIRE -1696 -240 -1840 -240
WIRE -1632 -240 -1696 -240
WIRE -1328 -240 -1472 -240
WIRE -1264 -240 -1328 -240
WIRE -688 -240 -688 -288
WIRE -1696 -160 -1696 -176
WIRE -1696 -160 -1840 -160
WIRE -1328 -160 -1328 -176
WIRE -1328 -160 -1472 -160
WIRE -2000 -144 -2000 -176
WIRE -1840 -144 -1840 -160
WIRE -1472 -144 -1472 -160
WIRE -688 -128 -688 -160
WIRE 64 112 32 112
WIRE -48 208 -48 112
WIRE -48 208 -128 208
WIRE 64 208 64 112
WIRE 64 208 16 208
WIRE 256 208 64 208
WIRE 288 208 256 208
WIRE 448 208 368 208
WIRE 256 240 256 208
WIRE 256 240 176 240
WIRE 176 256 176 240
WIRE -560 304 -560 240
WIRE 256 320 176 320
WIRE -128 352 -128 208
WIRE -80 352 -128 352
WIRE 256 368 256 320
WIRE 256 368 -16 368
WIRE 304 368 256 368
WIRE 672 368 304 368
WIRE 800 368 752 368
WIRE 896 368 800 368
WIRE 1024 368 976 368
WIRE 1168 368 1024 368
WIRE 1248 368 1168 368
WIRE 1376 368 1328 368
WIRE 1440 368 1376 368
WIRE 1568 368 1520 368
WIRE 1728 368 1568 368
WIRE -80 384 -240 384
WIRE 800 400 800 368
WIRE 1024 400 1024 368
WIRE 1376 400 1376 368
WIRE 1568 400 1568 368
WIRE -48 448 -48 400
WIRE -688 464 -784 464
WIRE -560 464 -560 384
WIRE -560 464 -624 464
WIRE -304 464 -560 464
WIRE -128 464 -128 352
WIRE -128 464 -224 464
WIRE 1168 480 1168 432
WIRE 1376 480 1376 464
WIRE 1376 480 1168 480
WIRE 800 512 800 464
WIRE 1024 512 1024 464
WIRE 1376 512 1376 480
WIRE 1568 512 1568 464
WIRE -560 528 -560 464
WIRE -560 688 -560 608
FLAG -2000 -144 0
FLAG -2000 -352 Vdd
FLAG -688 -288 Audio_in
FLAG -688 -48 0
FLAG 304 368 AmpOut
FLAG -48 336 Vdd
FLAG -48 448 0
FLAG -560 688 0
FLAG -784 464 Audio_in
FLAG -560 240 Vdd
FLAG 448 208 Midscale2
FLAG -1632 -240 Midscale1
FLAG -240 384 Midscale1
FLAG 800 512 Midscale2
FLAG 1024 512 Midscale2
FLAG 1376 512 0
FLAG 1568 512 0
FLAG 1728 368 ADC_in
FLAG -1840 -384 Vdd
FLAG -1840 -64 0
FLAG -1264 -240 Midscale2
FLAG -1472 -384 Vdd
FLAG -1472 -64 0
SYMBOL voltage -2000 -272 R0
WINDOW 123 0 0 Left 0
WINDOW 39 0 0 Left 0
WINDOW 0 33 59 Left 2
WINDOW 3 27 85 Left 2
SYMATTR InstName V1
SYMATTR Value 3.3
SYMBOL voltage -688 -144 R0
WINDOW 123 24 44 Left 2
WINDOW 39 0 0 Left 0
SYMATTR Value2 AC 1
SYMATTR InstName V4
SYMATTR Value 0
SYMBOL Opamps\\UniversalOpAmp -48 368 R0
SYMATTR InstName U1
SYMATTR Value2 Avol=1Meg GBW=45Meg Vos=0
SYMATTR SpiceLine En=0 Enk=0 In=0 Ink=0 Rin=10000Meg
SYMBOL cap -624 448 R90
WINDOW 0 0 32 VBottom 2
WINDOW 3 32 32 VTop 2
SYMATTR InstName C1
SYMATTR Value 100n
SYMBOL res -576 288 R0
SYMATTR InstName R1
SYMATTR Value 10Meg
SYMBOL res -576 512 R0
SYMATTR InstName R2
SYMATTR Value 10Meg
SYMBOL res 48 96 R90
WINDOW 0 0 56 VBottom 2
WINDOW 3 32 56 VTop 2
SYMATTR InstName R8
SYMATTR Value 10Meg
SYMBOL cap 16 192 R90
WINDOW 0 0 32 VBottom 2
WINDOW 3 32 32 VTop 2
SYMATTR InstName C4
SYMATTR Value 22p
SYMBOL res -208 448 R90
WINDOW 0 0 56 VBottom 2
WINDOW 3 32 56 VTop 2
SYMATTR InstName R3
SYMATTR Value 270k
SYMBOL res 240 224 R0
SYMATTR InstName R4
SYMATTR Value 10Meg
SYMBOL res 384 192 R90
WINDOW 0 0 56 VBottom 2
WINDOW 3 32 56 VTop 2
SYMATTR InstName R5
SYMATTR Value 270k
SYMBOL res -1856 -336 R0
SYMATTR InstName R6
SYMATTR Value 10Meg
SYMBOL res -1856 -256 R0
SYMATTR InstName R9
SYMATTR Value 10Meg
SYMBOL cap -1712 -240 R0
SYMATTR InstName C3
SYMATTR Value 1n
SYMBOL cap 160 256 R0
SYMATTR InstName C5
SYMATTR Value 22p
SYMBOL res 768 352 R90
WINDOW 0 0 56 VBottom 2
WINDOW 3 32 56 VTop 2
SYMATTR InstName R10
SYMATTR Value 270k
SYMBOL cap 784 400 R0
SYMATTR InstName C6
SYMATTR Value 2.2n
SYMBOL res 992 352 R90
WINDOW 0 0 56 VBottom 2
WINDOW 3 32 56 VTop 2
SYMATTR InstName R11
SYMATTR Value 270k
SYMBOL cap 1008 400 R0
SYMATTR InstName C7
SYMATTR Value 2.2n
SYMBOL res 1344 352 R90
WINDOW 0 0 56 VBottom 2
WINDOW 3 32 56 VTop 2
SYMATTR InstName R12
SYMATTR Value 10k
SYMBOL cap 1360 400 R0
SYMATTR InstName C8
SYMATTR Value 5p
SYMBOL res 1536 352 R90
WINDOW 0 0 56 VBottom 2
WINDOW 3 32 56 VTop 2
SYMATTR InstName R13
SYMATTR Value 10k
SYMBOL cap 1552 400 R0
SYMATTR InstName C9
SYMATTR Value 5p
SYMBOL cap -1712 -304 R0
SYMATTR InstName C10
SYMATTR Value 1n
SYMBOL res -1488 -336 R0
SYMATTR InstName R14
SYMATTR Value 10Meg
SYMBOL res -1488 -256 R0
SYMATTR InstName R15
SYMATTR Value 10Meg
SYMBOL cap -1344 -240 R0
SYMATTR InstName C11
SYMATTR Value 1µ
SYMBOL cap -1344 -304 R0
SYMATTR InstName C12
SYMATTR Value 1µ
SYMBOL res -1856 -160 R0
SYMATTR InstName R16
SYMATTR Value 1k
SYMBOL res -1488 -160 R0
SYMATTR InstName R17
SYMATTR Value 1k
SYMBOL res -704 -256 R0
SYMATTR InstName R7
SYMATTR Value 10k
SYMBOL cap 1152 368 R0
SYMATTR InstName C_pin
SYMATTR Value 50p
TEXT -1704 128 Left 2 !.ac dec 20 1 1e4
TEXT -1704 144 Left 2 !;.tran .01
TEXT -1608 -448 Left 4 ;Power rails
TEXT -808 -456 Left 4 ;MIC
TEXT -1696 200 Left 2 !.param C_fb = 2.2p\n.param R_fb = 100Meg
TEXT 1320 248 Left 2 ;PIC analog input impedance model
TEXT 784 248 Left 2 ;Additional filters
